
     RDKit          3D

 65 67  0  0  0  0  0  0  0  0999 V2000
    5.2938   -1.6525    2.0912 O   0  0  0  0  0  0  0  0  0  0  0  0
    5.1035   -0.6170    1.3951 C   0  0  0  0  0  0  0  0  0  0  0  0
    6.1907    0.3964    1.2715 C   0  0  0  0  0  0  0  0  0  0  0  0
    7.3816   -0.1232    0.5875 C   0  0  0  0  0  0  0  0  0  0  0  0
    7.4750    0.0573   -0.7904 C   0  0  0  0  0  0  0  0  0  0  0  0
    8.5482   -0.4006   -1.5124 C   0  0  0  0  0  0  0  0  0  0  0  0
    9.5959   -1.0683   -0.8963 C   0  0  0  0  0  0  0  0  0  0  0  0
    9.5174   -1.2532    0.4647 C   0  0  0  0  0  0  0  0  0  0  0  0
    8.4214   -0.7840    1.1899 C   0  0  0  0  0  0  0  0  0  0  0  0
    3.8502   -0.4825    0.7655 N   0  0  0  0  0  0  0  0  0  0  0  0
    2.7520   -1.3932    0.8292 C   0  0  0  0  0  0  0  0  0  0  0  0
    2.3330   -1.7481   -0.5718 C   0  0  0  0  0  0  0  0  0  0  0  0
    2.7276   -2.6097   -1.3701 O   0  0  0  0  0  0  0  0  0  0  0  0
    1.3377   -0.7360   -0.6138 N   0  0  0  0  0  0  0  0  0  0  0  0
    1.3816   -0.7584    0.8413 C   0  0  0  0  0  0  0  0  0  0  0  0
    1.4494    1.0579    1.1300 S   0  0  0  0  0  0  0  0  0  0  0  0
    0.6664    1.5379   -0.4515 C   0  0  0  0  0  0  0  0  0  0  0  0
    0.3969    0.2144   -1.1243 C   0  0  0  0  0  0  0  0  0  0  0  0
   -0.9800   -0.2541   -0.9595 C   0  0  0  0  0  0  0  0  0  0  0  0
   -1.9290    0.3222   -1.5571 O   0  0  0  0  0  0  0  0  0  0  0  0
   -1.3155   -1.3380   -0.1516 O   0  0  0  0  0  0  0  0  0  0  0  0
   -2.6480   -1.7638   -0.0273 C   0  0  0  0  0  0  0  0  0  0  0  0
   -3.4157   -0.6912    0.4656 O   0  0  0  0  0  0  0  0  0  0  0  0
   -4.8006   -0.8281    0.6911 C   0  0  0  0  0  0  0  0  0  0  0  0
   -5.2688   -1.9476    0.4356 O   0  0  0  0  0  0  0  0  0  0  0  0
   -5.5393    0.3267    1.1888 C   0  0  1  0  0  0  0  0  0  0  0  0
   -4.5850    1.3588    1.6637 N   0  0  0  0  0  4  0  0  0  0  0  0
   -6.3323    0.9948    0.1249 C   0  0  0  0  0  0  0  0  0  0  0  0
   -7.3775    0.2066   -0.5706 C   0  0  0  0  0  0  0  0  0  0  0  0
   -8.4411   -0.3532    0.3560 C   0  0  0  0  0  0  0  0  0  0  0  0
   -6.9243   -0.7644   -1.6004 C   0  0  0  0  0  0  0  0  0  0  0  0
   -0.6589    2.1494   -0.0797 C   0  0  0  0  0  0  0  0  0  0  0  0
    1.5203    2.4681   -1.2387 C   0  0  0  0  0  0  0  0  0  0  0  0
    6.4205    0.7005    2.3354 H   0  0  0  0  0  0  0  0  0  0  0  0
    5.7984    1.3393    0.8201 H   0  0  0  0  0  0  0  0  0  0  0  0
    6.6691    0.5792   -1.2964 H   0  0  0  0  0  0  0  0  0  0  0  0
    8.6153   -0.2517   -2.5936 H   0  0  0  0  0  0  0  0  0  0  0  0
   10.4291   -1.4177   -1.4944 H   0  0  0  0  0  0  0  0  0  0  0  0
   10.3133   -1.7715    0.9919 H   0  0  0  0  0  0  0  0  0  0  0  0
    8.3517   -0.9281    2.2731 H   0  0  0  0  0  0  0  0  0  0  0  0
    3.7052    0.3846    0.1819 H   0  0  0  0  0  0  0  0  0  0  0  0
    2.8070   -2.2455    1.5007 H   0  0  0  0  0  0  0  0  0  0  0  0
    0.5765   -1.2785    1.3508 H   0  0  0  0  0  0  0  0  0  0  0  0
    0.5941    0.3789   -2.2020 H   0  0  0  0  0  0  0  0  0  0  0  0
   -2.6590   -2.6515    0.6304 H   0  0  0  0  0  0  0  0  0  0  0  0
   -3.0735   -2.0810   -1.0189 H   0  0  0  0  0  0  0  0  0  0  0  0
   -6.1332    0.0620    2.0926 H   0  0  0  0  0  0  0  0  0  0  0  0
   -4.2738    1.1289    2.6339 H   0  0  0  0  0  0  0  0  0  0  0  0
   -5.1330    2.2447    1.7174 H   0  0  0  0  0  0  0  0  0  0  0  0
   -3.8284    1.5040    0.9894 H   0  0  0  0  0  0  0  0  0  0  0  0
   -5.5907    1.3103   -0.6668 H   0  0  0  0  0  0  0  0  0  0  0  0
   -6.7721    1.9700    0.4628 H   0  0  0  0  0  0  0  0  0  0  0  0
   -7.9715    1.0011   -1.1689 H   0  0  0  0  0  0  0  0  0  0  0  0
   -8.0228   -0.9726    1.1556 H   0  0  0  0  0  0  0  0  0  0  0  0
   -9.0625   -1.0531   -0.2737 H   0  0  0  0  0  0  0  0  0  0  0  0
   -9.0703    0.4718    0.7224 H   0  0  0  0  0  0  0  0  0  0  0  0
   -7.4316   -0.5640   -2.6031 H   0  0  0  0  0  0  0  0  0  0  0  0
   -7.2176   -1.8205   -1.3969 H   0  0  0  0  0  0  0  0  0  0  0  0
   -5.8605   -0.6215   -1.8173 H   0  0  0  0  0  0  0  0  0  0  0  0
   -1.2484    1.3661    0.4552 H   0  0  0  0  0  0  0  0  0  0  0  0
   -1.2564    2.4886   -0.9283 H   0  0  0  0  0  0  0  0  0  0  0  0
   -0.5018    2.9672    0.6590 H   0  0  0  0  0  0  0  0  0  0  0  0
    2.2918    1.9527   -1.8387 H   0  0  0  0  0  0  0  0  0  0  0  0
    1.9661    3.2150   -0.5384 H   0  0  0  0  0  0  0  0  0  0  0  0
    0.8426    3.0689   -1.9120 H   0  0  0  0  0  0  0  0  0  0  0  0
  1  2  2  0
  2  3  1  0
  3  4  1  0
  4  5  2  0
  5  6  1  0
  6  7  2  0
  7  8  1  0
  8  9  2  0
  2 10  1  0
 10 11  1  0
 11 12  1  0
 12 13  2  0
 12 14  1  0
 14 15  1  0
 15 16  1  0
 16 17  1  0
 17 18  1  0
 18 19  1  0
 19 20  2  0
 19 21  1  0
 21 22  1  0
 22 23  1  0
 23 24  1  0
 24 25  2  0
 24 26  1  0
 26 27  1  0
 26 28  1  0
 28 29  1  0
 29 30  1  0
 29 31  1  0
 17 32  1  0
 17 33  1  0
  9  4  1  0
 15 11  1  0
 18 14  1  0
  3 34  1  0
  3 35  1  0
  5 36  1  0
  6 37  1  0
  7 38  1  0
  8 39  1  0
  9 40  1  0
 10 41  1  0
 11 42  1  0
 15 43  1  0
 18 44  1  0
 22 45  1  0
 22 46  1  0
 26 47  1  1
 27 48  1  0
 27 49  1  0
 27 50  1  0
 28 51  1  0
 28 52  1  0
 29 53  1  0
 30 54  1  0
 30 55  1  0
 30 56  1  0
 31 57  1  0
 31 58  1  0
 31 59  1  0
 32 60  1  0
 32 61  1  0
 32 62  1  0
 33 63  1  0
 33 64  1  0
 33 65  1  0
M  CHG  1  27   1
M  END
$$$$
